data_image0
_cell_length_a       7.97859
_cell_length_b       7.86591
_cell_length_c       7.97864
_cell_angle_alpha    89.9977
_cell_angle_beta     89.6315
_cell_angle_gamma    90.0023

_symmetry_space_group_name_H-M    "P 1"
_symmetry_int_tables_number       1

loop_
  _symmetry_equiv_pos_as_xyz
  'x, y, z'

loop_
  _atom_site_label
  _atom_site_occupancy
  _atom_site_fract_x
  _atom_site_fract_y
  _atom_site_fract_z
  _atom_site_thermal_displace_type
  _atom_site_B_iso_or_equiv
  _atom_site_type_symbol
  La1      1.0000 0.00290  0.99079  0.98624  Biso   1.000  La
  La2      1.0000 0.50290  0.99079  0.48624  Biso   1.000  La
  La3      1.0000 0.99710  0.49079  0.01378  Biso   1.000  La
  La4      1.0000 0.49710  0.49079  0.51378  Biso   1.000  La
  La5      1.0000 0.98623  0.49079  0.50291  Biso   1.000  La
  La6      1.0000 0.48623  0.49079  0.00291  Biso   1.000  La
  La7      1.0000 0.51377  0.99078  0.99711  Biso   1.000  La
  La8      1.0000 0.01377  0.99078  0.49711  Biso   1.000  La
  Ti1      1.0000 0.24015  0.74432  0.24055  Biso   1.000  Ti
  Ti2      1.0000 0.74015  0.74432  0.74055  Biso   1.000  Ti
  Ti3      1.0000 0.74056  0.24431  0.24013  Biso   1.000  Ti
  Ti4      1.0000 0.24056  0.24431  0.74013  Biso   1.000  Ti
  Ti5      1.0000 0.75987  0.24431  0.75945  Biso   1.000  Ti
  Ti6      1.0000 0.25987  0.24431  0.25945  Biso   1.000  Ti
  Ti7      1.0000 0.75946  0.74432  0.25986  Biso   1.000  Ti
  Ti8      1.0000 0.25946  0.74432  0.75986  Biso   1.000  Ti
  O1       1.0000 0.70117  0.00353  0.71177  Biso   1.000  O 
  O2       1.0000 0.20117  0.00353  0.21177  Biso   1.000  O 
  O3       1.0000 0.79881  0.50353  0.78827  Biso   1.000  O 
  O4       1.0000 0.29881  0.50353  0.28827  Biso   1.000  O 
  O5       1.0000 0.71172  0.50353  0.20122  Biso   1.000  O 
  O6       1.0000 0.21172  0.50353  0.70122  Biso   1.000  O 
  O7       1.0000 0.78826  0.00353  0.29882  Biso   1.000  O 
  O8       1.0000 0.28826  0.00353  0.79882  Biso   1.000  O 
  O9       1.0000 0.76603  0.80330  0.99818  Biso   1.000  O 
  O10      1.0000 0.26603  0.80330  0.49818  Biso   1.000  O 
  O11      1.0000 0.73380  0.30328  0.50187  Biso   1.000  O 
  O12      1.0000 0.23380  0.30328  0.00187  Biso   1.000  O 
  O13      1.0000 0.99814  0.30330  0.26620  Biso   1.000  O 
  O14      1.0000 0.49814  0.30330  0.76620  Biso   1.000  O 
  O15      1.0000 0.50183  0.80332  0.23398  Biso   1.000  O 
  O16      1.0000 0.00183  0.80332  0.73398  Biso   1.000  O 
  N1       1.0000 0.73659  0.70807  0.49993  Biso   1.000  N 
  N2       1.0000 0.23659  0.70807  0.99993  Biso   1.000  N 
  N3       1.0000 0.76355  0.20808  0.00010  Biso   1.000  N 
  N4       1.0000 0.26355  0.20808  0.50010  Biso   1.000  N 
  N5       1.0000 0.49990  0.20806  0.23646  Biso   1.000  N 
  N6       1.0000 0.99990  0.20806  0.73646  Biso   1.000  N 
  N7       1.0000 0.00008  0.70806  0.26342  Biso   1.000  N 
  N8       1.0000 0.50008  0.70806  0.76342  Biso   1.000  N 
